k23/sourcebus_11000.trafo_75615289_75615289/LineCodes.dss
New Linecode.1P_Code2 units=km nphases=1 R1=0.7839 R0=1e-05 X1=0.0915 X0=1e-05 C1=0.0001 C0=0.0001 BaseFreq=50
New Linecode.2P_Code0 units=km nphases=2 R1=0.1 R0=1e-05 X1=0.061 X0=1e-05 C1=0.0001 C0=0.0001 BaseFreq=50
New Linecode.2P_Code3 units=km nphases=2 R1=0.164 R0=1e-05 X1=0.062 X0=1e-05 C1=0.0001 C0=0.0001 BaseFreq=50
New Linecode.2P_Code4 units=km nphases=2 R1=1.29 R0=1e-05 X1=0.258 X0=1e-05 C1=0.0001 C0=0.0001 BaseFreq=50
New Linecode.2P_Code5 units=km nphases=2 R1=0.7839 R0=1e-05 X1=0.0915 X0=1e-05 C1=0.0001 C0=0.0001 BaseFreq=50
New Linecode.3P_Code1 units=km nphases=3 R1=0.164 R0=1e-05 X1=0.062 X0=1e-05 C1=0.0001 C0=0.0001 BaseFreq=50
